Version 4
SHEET 1 880 680
WIRE 160 -32 -64 -32
WIRE 288 -32 160 -32
WIRE -64 0 -64 -32
WIRE 288 0 288 -32
WIRE 80 96 64 96
WIRE 224 144 160 144
WIRE 288 144 288 80
WIRE 288 144 224 144
WIRE -48 160 -96 160
WIRE 64 160 64 96
WIRE 64 160 32 160
WIRE 224 160 224 144
WIRE -256 224 -256 208
WIRE -256 224 -320 224
WIRE -320 240 -320 224
WIRE -256 240 -256 224
WIRE -96 240 -96 160
FLAG -320 240 0
FLAG -256 128 V+
IOPIN -256 128 BiDir
FLAG -256 320 V-
IOPIN -256 320 BiDir
FLAG 224 160 0
FLAG -96 320 0
FLAG -64 80 0
SYMBOL voltage -256 112 R0
WINDOW 123 0 0 Left 0
WINDOW 39 0 0 Left 0
SYMATTR InstName V1
SYMATTR Value 3
SYMBOL voltage -256 224 R0
WINDOW 123 0 0 Left 0
WINDOW 39 0 0 Left 0
SYMATTR InstName V2
SYMATTR Value 3
SYMBOL voltage -96 224 R0
WINDOW 3 24 96 Invisible 2
WINDOW 123 0 0 Left 0
WINDOW 39 0 0 Left 0
SYMATTR Value PULSE(0 3 0 1n 1n 20m 40m)
SYMATTR InstName V3
SYMBOL res 144 -48 R0
SYMATTR InstName R2
SYMATTR Value 10m
SYMBOL res 272 -16 R0
SYMATTR InstName R1
SYMATTR Value 10
SYMBOL current -64 80 R180
WINDOW 0 24 80 Left 2
WINDOW 3 24 0 Invisible 2
WINDOW 123 0 0 Left 0
WINDOW 39 0 0 Left 0
SYMATTR InstName I1
SYMATTR Value PULSE(400u 200m 0 1n 1n 19m 40m)
SYMBOL ZZZ\\MOS\\IRF\\NMOSFET\\irlz44n 128 96 R0
SYMATTR InstName U1
SYMBOL res 48 144 R90
WINDOW 0 0 56 VBottom 2
WINDOW 3 32 56 VTop 2
SYMATTR InstName R3
SYMATTR Value 10k
TEXT -336 408 Left 2 !.tran 100m
