Version 4
SHEET 1 880 680
WIRE 32 128 32 112
WIRE 96 128 32 128
WIRE 240 144 160 144
WIRE 96 160 32 160
WIRE 240 160 240 144
WIRE 32 176 32 160
WIRE 128 192 128 176
WIRE -256 224 -256 208
WIRE -256 224 -320 224
WIRE -320 240 -320 224
WIRE -256 240 -256 224
WIRE 240 288 240 240
FLAG -320 240 0
FLAG -256 128 V+
IOPIN -256 128 BiDir
FLAG -256 320 V-
IOPIN -256 320 BiDir
FLAG 128 112 V+
IOPIN 128 112 BiDir
FLAG 240 288 0
FLAG 32 256 0
FLAG 32 32 0
FLAG 128 192 0
SYMBOL voltage -256 112 R0
WINDOW 123 0 0 Left 0
WINDOW 39 0 0 Left 0
SYMATTR InstName V1
SYMATTR Value 3
SYMBOL voltage -256 224 R0
WINDOW 123 0 0 Left 0
WINDOW 39 0 0 Left 0
SYMATTR InstName V2
SYMATTR Value 3
SYMBOL res 224 144 R0
SYMATTR InstName R1
SYMATTR Value 220
SYMBOL voltage 32 160 R0
WINDOW 3 24 96 Invisible 2
WINDOW 123 0 0 Left 0
WINDOW 39 0 0 Left 0
SYMATTR InstName V3
SYMATTR Value PULSE(0 500m 0 1n 1n 2m 4m)
SYMBOL voltage 32 128 R180
WINDOW 0 24 96 Left 2
WINDOW 3 24 16 Left 2
WINDOW 123 0 0 Left 0
WINDOW 39 0 0 Left 0
SYMATTR InstName V4
SYMATTR Value 450m
SYMBOL ZZZ\\OpAmp\\LM358 128 144 R0
SYMATTR InstName U1
TEXT -336 408 Left 2 !.tran 30M
