Version 4
SHEET 1 880 680
WIRE -176 -224 -560 -224
WIRE 288 -224 -176 -224
WIRE -176 -144 -176 -224
WIRE -176 -144 -288 -144
WIRE -144 -144 -176 -144
WIRE -48 -144 -64 -144
WIRE -288 -96 -288 -144
WIRE -176 -96 -176 -144
WIRE -48 -80 -48 -144
WIRE 240 -80 128 -80
WIRE 128 -32 128 -80
WIRE -560 0 -560 -224
WIRE -176 16 -176 -16
WIRE -48 16 -48 -16
WIRE -48 16 -176 16
WIRE 48 16 -48 16
WIRE -176 32 -176 16
WIRE -288 64 -288 -16
WIRE -208 64 -288 64
WIRE 288 64 288 -224
WIRE -288 80 -288 64
WIRE -48 112 -48 16
WIRE 240 144 240 -80
WIRE 288 144 240 144
WIRE 288 160 288 144
WIRE -288 192 -288 160
WIRE -256 192 -288 192
WIRE -176 192 -176 96
WIRE -48 208 -48 176
WIRE -560 288 -560 80
WIRE -192 288 -560 288
WIRE -176 288 -176 192
WIRE -176 288 -192 288
WIRE -48 288 -176 288
WIRE 128 288 128 64
WIRE 128 288 -48 288
WIRE -192 320 -192 288
FLAG -192 320 0
SYMBOL voltage 288 48 R0
WINDOW 3 24 44 Left 2
WINDOW 123 24 124 Left 2
WINDOW 39 0 0 Left 0
SYMATTR InstName V1
SYMATTR Value 3
SYMBOL ZZZ\\REF\\TL431 -192 32 R0
SYMATTR InstName U1
SYMBOL LED -64 -80 R0
SYMATTR InstName D1
SYMBOL LED -64 112 R0
SYMATTR InstName D2
SYMBOL res -192 -112 R0
SYMATTR InstName R1
SYMATTR Value 1k
SYMBOL res -304 -112 R0
SYMATTR InstName R2
SYMATTR Value 4.7k
SYMBOL res -304 64 R0
SYMATTR InstName R3
SYMATTR Value 6.8k
SYMBOL res -160 176 R90
WINDOW 0 0 56 VBottom 2
WINDOW 3 32 56 VTop 2
SYMATTR InstName R4
SYMATTR Value 2.2k
SYMBOL res -48 -160 R90
WINDOW 0 0 56 VBottom 2
WINDOW 3 32 56 VTop 2
SYMATTR InstName R5
SYMATTR Value 5.6k
SYMBOL res -32 304 R180
WINDOW 0 36 76 Left 2
WINDOW 3 36 40 Left 2
SYMATTR InstName R6
SYMATTR Value 15k
SYMBOL ZZZ\\MOS\\IRF\\NMOSFET\\irfz44n 96 16 R0
SYMATTR InstName U2
SYMBOL voltage -560 -16 R0
WINDOW 123 0 0 Left 0
WINDOW 39 0 0 Left 0
SYMATTR InstName V2
SYMATTR Value 5
TEXT 578 -180 Left 2 !.dc V1 3 1 -0.01
