Version 4
SHEET 1 880 680
WIRE -96 -96 -400 -96
WIRE -400 32 -400 -96
WIRE -96 32 -96 -96
WIRE 80 32 -96 32
WIRE -96 48 -96 32
WIRE 128 112 80 112
WIRE -400 128 -400 112
WIRE -96 128 -400 128
WIRE 0 128 -96 128
WIRE 208 128 192 128
WIRE 288 128 208 128
WIRE 128 144 80 144
WIRE 288 144 288 128
WIRE 336 144 288 144
WIRE 528 160 400 160
WIRE 208 176 208 128
WIRE 336 176 288 176
WIRE 528 176 528 160
WIRE 80 272 80 144
WIRE 96 272 80 272
WIRE 208 272 208 256
WIRE 208 272 176 272
WIRE 288 272 288 176
WIRE 320 272 288 272
WIRE 528 272 528 256
WIRE 528 272 480 272
WIRE 80 288 80 272
WIRE 288 288 288 272
WIRE 0 368 0 128
WIRE 0 368 -112 368
WIRE 80 368 0 368
WIRE 288 368 80 368
WIRE -560 384 -672 384
WIRE -368 384 -448 384
WIRE -256 384 -368 384
WIRE 0 384 0 368
WIRE -208 416 -304 416
WIRE -256 432 -256 384
WIRE -672 448 -672 384
WIRE -304 448 -304 416
WIRE -288 448 -304 448
WIRE -448 464 -448 384
WIRE -448 464 -560 464
WIRE -208 464 -208 416
WIRE -208 464 -224 464
WIRE -112 464 -112 368
WIRE -112 464 -208 464
WIRE -560 480 -560 464
WIRE -368 480 -368 464
WIRE -288 480 -368 480
WIRE -368 496 -368 480
WIRE -672 576 -672 528
WIRE -560 576 -560 560
WIRE -560 576 -672 576
WIRE -368 576 -560 576
WIRE -256 576 -256 496
WIRE -256 576 -368 576
FLAG 144 160 V+
IOPIN 144 160 BiDir
FLAG 352 192 V+
IOPIN 352 192 BiDir
FLAG 144 96 V-
IOPIN 144 96 BiDir
FLAG 352 128 V-
IOPIN 352 128 BiDir
FLAG 528 272 Vout
FLAG 176 96 V+
IOPIN 176 96 BiDir
FLAG 384 128 V+
IOPIN 384 128 BiDir
FLAG -256 384 V+
IOPIN -256 384 BiDir
FLAG -256 576 V-
IOPIN -256 576 BiDir
FLAG -256 320 V-
IOPIN -256 320 BiDir
FLAG 0 384 0
SYMBOL OpAmps\\MAX4239 160 112 M180
WINDOW 0 -18 132 Left 2
WINDOW 3 -54 105 Left 2
SYMATTR InstName U1
SYMBOL OpAmps\\MAX4239 368 144 M180
WINDOW 0 -34 137 Left 2
WINDOW 3 -63 107 Left 2
SYMATTR InstName U2
SYMBOL res 416 256 R90
WINDOW 0 78 53 VBottom 2
WINDOW 3 32 56 VTop 2
SYMATTR InstName R1
SYMATTR Value 2.2k
SYMBOL res 304 384 R180
WINDOW 0 36 76 Left 2
WINDOW 3 36 40 Left 2
SYMATTR InstName R2
SYMATTR Value 1k
SYMBOL res 192 256 R90
WINDOW 0 0 56 VBottom 2
WINDOW 3 32 56 VTop 2
SYMATTR InstName R3
SYMATTR Value 2.2k
SYMBOL res 96 384 R180
WINDOW 0 36 76 Left 2
WINDOW 3 36 40 Left 2
SYMATTR InstName R4
SYMATTR Value 1k
SYMBOL res 544 272 R180
WINDOW 0 36 76 Left 2
WINDOW 3 36 40 Left 2
SYMATTR InstName R5
SYMATTR Value 50k
SYMBOL res -112 32 R0
SYMATTR InstName RuA
SYMATTR Value 10
SYMBOL current -400 112 R180
WINDOW 0 24 80 Left 2
WINDOW 3 24 0 Invisible 2
WINDOW 123 0 0 Left 0
WINDOW 39 0 0 Left 0
SYMATTR InstName I1
SYMATTR Value 450µ
SYMBOL res 64 16 R0
SYMATTR InstName R9
SYMATTR Value 220
SYMBOL res 192 160 R0
SYMATTR InstName R6
SYMATTR Value 6.8k
SYMBOL res 496 256 R90
WINDOW 0 0 56 VBottom 2
WINDOW 3 32 56 VTop 2
SYMATTR InstName R8
SYMATTR Value 6.8k
SYMBOL voltage -672 432 R0
WINDOW 123 0 0 Left 0
WINDOW 39 0 0 Left 0
SYMATTR InstName V1
SYMATTR Value 7.4
SYMBOL ZZZ\\OpAmp\\LM321LV -256 400 R0
SYMATTR InstName U3
SYMBOL res -384 368 R0
SYMATTR InstName R7
SYMATTR Value 100k
SYMBOL res -384 480 R0
SYMATTR InstName R10
SYMATTR Value 100k
SYMBOL cap -272 320 R0
WINDOW 3 42 28 Left 2
SYMATTR InstName C1
SYMATTR Value 0.1µ
SYMBOL res -576 368 R0
SYMATTR InstName R11
SYMATTR Value 1k
SYMBOL res -576 464 R0
SYMATTR InstName R12
SYMATTR Value 30k
TEXT -80 -160 Left 2 !.tran 1m
