Version 4
SHEET 1 880 680
WIRE -176 -96 -400 -96
WIRE -96 -96 -176 -96
WIRE -176 -80 -176 -96
WIRE -176 16 -176 0
WIRE -400 32 -400 -96
WIRE -400 32 -416 32
WIRE -96 32 -96 -96
WIRE 80 32 -96 32
WIRE -96 48 -96 32
WIRE 576 80 416 80
WIRE 128 112 80 112
WIRE -400 128 -400 112
WIRE -176 128 -176 112
WIRE -176 128 -400 128
WIRE -96 128 -176 128
WIRE 0 128 -96 128
WIRE 224 128 192 128
WIRE 288 128 224 128
WIRE 128 144 80 144
WIRE 288 144 288 128
WIRE 336 144 288 144
WIRE 416 160 416 80
WIRE 416 160 400 160
WIRE 528 160 416 160
WIRE 336 176 288 176
WIRE 528 176 528 160
WIRE -224 192 -224 96
WIRE 80 272 80 144
WIRE 96 272 80 272
WIRE 224 272 224 128
WIRE 224 272 176 272
WIRE 288 272 288 176
WIRE 320 272 288 272
WIRE 464 272 400 272
WIRE 528 272 528 256
WIRE 528 272 464 272
WIRE 80 288 80 272
WIRE 288 288 288 272
WIRE -272 336 -304 336
WIRE -240 336 -240 256
WIRE -240 336 -272 336
WIRE 0 368 0 128
WIRE 80 368 0 368
WIRE 288 368 80 368
WIRE -272 384 -272 336
WIRE -432 400 -432 384
WIRE -384 400 -384 336
WIRE -384 400 -432 400
WIRE -368 400 -384 400
WIRE 0 400 0 368
WIRE -208 464 -208 256
WIRE 576 464 576 80
WIRE 576 464 -208 464
WIRE -272 480 -272 464
FLAG 0 400 0
FLAG 144 160 V+
IOPIN 144 160 BiDir
FLAG 352 192 V+
IOPIN 352 192 BiDir
FLAG 144 96 V-
IOPIN 144 96 BiDir
FLAG 352 128 V-
IOPIN 352 128 BiDir
FLAG 464 272 Vout
FLAG -432 304 V+
IOPIN -432 304 Out
FLAG -432 480 V-
IOPIN -432 480 Out
FLAG -368 400 0
FLAG 176 96 V+
IOPIN 176 96 BiDir
FLAG 384 128 V+
IOPIN 384 128 BiDir
FLAG -192 224 V+
IOPIN -192 224 BiDir
FLAG -256 224 V-
IOPIN -256 224 BiDir
FLAG -272 480 V+
IOPIN -272 480 BiDir
SYMBOL OpAmps\\MAX4239 160 112 M180
WINDOW 0 -18 132 Left 2
WINDOW 3 -54 105 Left 2
SYMATTR InstName U1
SYMBOL OpAmps\\MAX4239 368 144 M180
WINDOW 0 -34 137 Left 2
WINDOW 3 -63 107 Left 2
SYMATTR InstName U2
SYMBOL res 416 256 R90
WINDOW 0 78 53 VBottom 2
WINDOW 3 32 56 VTop 2
SYMATTR InstName R1
SYMATTR Value 9k
SYMBOL res 304 384 R180
WINDOW 0 36 76 Left 2
WINDOW 3 36 40 Left 2
SYMATTR InstName R2
SYMATTR Value 1k
SYMBOL res 192 256 R90
WINDOW 0 0 56 VBottom 2
WINDOW 3 32 56 VTop 2
SYMATTR InstName R3
SYMATTR Value 9k
SYMBOL res 96 384 R180
WINDOW 0 36 76 Left 2
WINDOW 3 36 40 Left 2
SYMATTR InstName R4
SYMATTR Value 1k
SYMBOL res 544 272 R180
WINDOW 0 36 76 Left 2
WINDOW 3 36 40 Left 2
SYMATTR InstName R5
SYMATTR Value 50k
SYMBOL voltage -432 288 R0
WINDOW 123 0 0 Left 0
WINDOW 39 0 0 Left 0
SYMATTR InstName V1
SYMATTR Value 3
SYMBOL res -112 32 R0
SYMATTR InstName R8
SYMATTR Value 10
SYMBOL current -400 112 R180
WINDOW 0 24 80 Left 2
WINDOW 3 24 0 Invisible 2
WINDOW 123 0 0 Left 0
WINDOW 39 0 0 Left 0
SYMATTR InstName I1
SYMATTR Value PULSE(300u 10m 2m 1n 1n 5m 10m)
SYMBOL res 64 16 R0
SYMATTR InstName R9
SYMATTR Value 270
SYMBOL voltage -432 384 R0
WINDOW 123 0 0 Left 0
WINDOW 39 0 0 Left 0
SYMATTR InstName V2
SYMATTR Value 3
SYMBOL nmos -224 16 R0
SYMATTR InstName M1
SYMBOL res -192 -96 R0
SYMATTR InstName R6
SYMATTR Value 10m
SYMBOL res -288 320 R90
WINDOW 0 0 56 VBottom 2
WINDOW 3 32 56 VTop 2
SYMATTR InstName R7
SYMATTR Value 50k
SYMBOL res -256 480 R180
WINDOW 0 36 76 Left 2
WINDOW 3 36 40 Left 2
SYMATTR InstName R10
SYMATTR Value 1k
SYMBOL ZZZ\\OpAmp\\LM318_LT -224 224 M270
SYMATTR InstName U4
TEXT -80 -160 Left 2 !.tran 0 30m 10m 1m
